*SPEF "IEEE 1481-1998"
*DESIGN "user_proj_example"
*DATE "Mon Nov 30 14:36:03 2020"
*VENDOR "AUC CSCE Department"
*PROGRAM "SPEF Extractor"
*VERSION "1.0"
*DESIGN_FLOW "PIN_CAP NONE"
*DIVIDER /
*DELIMITER :
*BUS_DELIMITER []
*T_UNIT 1.00000 NS
*C_UNIT 1.00000 PF
*R_UNIT 1.00000 OHM
*L_UNIT 1.00000 HENRY


*NAME_MAP
*0 io_in[0]
*1 io_in[10]
*2 io_in[11]
*3 io_in[12]
*4 io_in[13]
*5 io_in[14]
*6 io_in[15]
*7 io_in[16]
*8 io_in[17]
*9 io_in[18]
*10 io_in[19]
*11 io_in[1]
*12 io_in[20]
*13 io_in[21]
*14 io_in[22]
*15 io_in[23]
*16 io_in[24]
*17 io_in[25]
*18 io_in[26]
*19 io_in[27]
*20 io_in[28]
*21 io_in[29]
*22 io_in[2]
*23 io_in[30]
*24 io_in[31]
*25 io_in[32]
*26 io_in[33]
*27 io_in[34]
*28 io_in[35]
*29 io_in[36]
*30 io_in[37]
*31 io_in[3]
*32 io_in[4]
*33 io_in[5]
*34 io_in[6]
*35 io_in[7]
*36 io_in[8]
*37 io_in[9]
*38 io_oeb[0]
*39 io_oeb[10]
*40 io_oeb[11]
*41 io_oeb[12]
*42 io_oeb[13]
*43 io_oeb[14]
*44 io_oeb[15]
*45 io_oeb[16]
*46 io_oeb[17]
*47 io_oeb[18]
*48 io_oeb[19]
*49 io_oeb[1]
*50 io_oeb[20]
*51 io_oeb[21]
*52 io_oeb[22]
*53 io_oeb[23]
*54 io_oeb[24]
*55 io_oeb[25]
*56 io_oeb[26]
*57 io_oeb[27]
*58 io_oeb[28]
*59 io_oeb[29]
*60 io_oeb[2]
*61 io_oeb[30]
*62 io_oeb[31]
*63 io_oeb[32]
*64 io_oeb[33]
*65 io_oeb[34]
*66 io_oeb[35]
*67 io_oeb[36]
*68 io_oeb[37]
*69 io_oeb[3]
*70 io_oeb[4]
*71 io_oeb[5]
*72 io_oeb[6]
*73 io_oeb[7]
*74 io_oeb[8]
*75 io_oeb[9]
*76 io_out[0]
*77 io_out[10]
*78 io_out[11]
*79 io_out[12]
*80 io_out[13]
*81 io_out[14]
*82 io_out[15]
*83 io_out[16]
*84 io_out[17]
*85 io_out[18]
*86 io_out[19]
*87 io_out[1]
*88 io_out[20]
*89 io_out[21]
*90 io_out[22]
*91 io_out[23]
*92 io_out[24]
*93 io_out[25]
*94 io_out[26]
*95 io_out[27]
*96 io_out[28]
*97 io_out[29]
*98 io_out[2]
*99 io_out[30]
*100 io_out[31]
*101 io_out[32]
*102 io_out[33]
*103 io_out[34]
*104 io_out[35]
*105 io_out[36]
*106 io_out[37]
*107 io_out[3]
*108 io_out[4]
*109 io_out[5]
*110 io_out[6]
*111 io_out[7]
*112 io_out[8]
*113 io_out[9]
*114 la_data_in[0]
*115 la_data_in[100]
*116 la_data_in[101]
*117 la_data_in[102]
*118 la_data_in[103]
*119 la_data_in[104]
*120 la_data_in[105]
*121 la_data_in[106]
*122 la_data_in[107]
*123 la_data_in[108]
*124 la_data_in[109]
*125 la_data_in[10]
*126 la_data_in[110]
*127 la_data_in[111]
*128 la_data_in[112]
*129 la_data_in[113]
*130 la_data_in[114]
*131 la_data_in[115]
*132 la_data_in[116]
*133 la_data_in[117]
*134 la_data_in[118]
*135 la_data_in[119]
*136 la_data_in[11]
*137 la_data_in[120]
*138 la_data_in[121]
*139 la_data_in[122]
*140 la_data_in[123]
*141 la_data_in[124]
*142 la_data_in[125]
*143 la_data_in[126]
*144 la_data_in[127]
*145 la_data_in[12]
*146 la_data_in[13]
*147 la_data_in[14]
*148 la_data_in[15]
*149 la_data_in[16]
*150 la_data_in[17]
*151 la_data_in[18]
*152 la_data_in[19]
*153 la_data_in[1]
*154 la_data_in[20]
*155 la_data_in[21]
*156 la_data_in[22]
*157 la_data_in[23]
*158 la_data_in[24]
*159 la_data_in[25]
*160 la_data_in[26]
*161 la_data_in[27]
*162 la_data_in[28]
*163 la_data_in[29]
*164 la_data_in[2]
*165 la_data_in[30]
*166 la_data_in[31]
*167 la_data_in[32]
*168 la_data_in[33]
*169 la_data_in[34]
*170 la_data_in[35]
*171 la_data_in[36]
*172 la_data_in[37]
*173 la_data_in[38]
*174 la_data_in[39]
*175 la_data_in[3]
*176 la_data_in[40]
*177 la_data_in[41]
*178 la_data_in[42]
*179 la_data_in[43]
*180 la_data_in[44]
*181 la_data_in[45]
*182 la_data_in[46]
*183 la_data_in[47]
*184 la_data_in[48]
*185 la_data_in[49]
*186 la_data_in[4]
*187 la_data_in[50]
*188 la_data_in[51]
*189 la_data_in[52]
*190 la_data_in[53]
*191 la_data_in[54]
*192 la_data_in[55]
*193 la_data_in[56]
*194 la_data_in[57]
*195 la_data_in[58]
*196 la_data_in[59]
*197 la_data_in[5]
*198 la_data_in[60]
*199 la_data_in[61]
*200 la_data_in[62]
*201 la_data_in[63]
*202 la_data_in[64]
*203 la_data_in[65]
*204 la_data_in[66]
*205 la_data_in[67]
*206 la_data_in[68]
*207 la_data_in[69]
*208 la_data_in[6]
*209 la_data_in[70]
*210 la_data_in[71]
*211 la_data_in[72]
*212 la_data_in[73]
*213 la_data_in[74]
*214 la_data_in[75]
*215 la_data_in[76]
*216 la_data_in[77]
*217 la_data_in[78]
*218 la_data_in[79]
*219 la_data_in[7]
*220 la_data_in[80]
*221 la_data_in[81]
*222 la_data_in[82]
*223 la_data_in[83]
*224 la_data_in[84]
*225 la_data_in[85]
*226 la_data_in[86]
*227 la_data_in[87]
*228 la_data_in[88]
*229 la_data_in[89]
*230 la_data_in[8]
*231 la_data_in[90]
*232 la_data_in[91]
*233 la_data_in[92]
*234 la_data_in[93]
*235 la_data_in[94]
*236 la_data_in[95]
*237 la_data_in[96]
*238 la_data_in[97]
*239 la_data_in[98]
*240 la_data_in[99]
*241 la_data_in[9]
*242 la_data_out[0]
*243 la_data_out[100]
*244 la_data_out[101]
*245 la_data_out[102]
*246 la_data_out[103]
*247 la_data_out[104]
*248 la_data_out[105]
*249 la_data_out[106]
*250 la_data_out[107]
*251 la_data_out[108]
*252 la_data_out[109]
*253 la_data_out[10]
*254 la_data_out[110]
*255 la_data_out[111]
*256 la_data_out[112]
*257 la_data_out[113]
*258 la_data_out[114]
*259 la_data_out[115]
*260 la_data_out[116]
*261 la_data_out[117]
*262 la_data_out[118]
*263 la_data_out[119]
*264 la_data_out[11]
*265 la_data_out[120]
*266 la_data_out[121]
*267 la_data_out[122]
*268 la_data_out[123]
*269 la_data_out[124]
*270 la_data_out[125]
*271 la_data_out[126]
*272 la_data_out[127]
*273 la_data_out[12]
*274 la_data_out[13]
*275 la_data_out[14]
*276 la_data_out[15]
*277 la_data_out[16]
*278 la_data_out[17]
*279 la_data_out[18]
*280 la_data_out[19]
*281 la_data_out[1]
*282 la_data_out[20]
*283 la_data_out[21]
*284 la_data_out[22]
*285 la_data_out[23]
*286 la_data_out[24]
*287 la_data_out[25]
*288 la_data_out[26]
*289 la_data_out[27]
*290 la_data_out[28]
*291 la_data_out[29]
*292 la_data_out[2]
*293 la_data_out[30]
*294 la_data_out[31]
*295 la_data_out[32]
*296 la_data_out[33]
*297 la_data_out[34]
*298 la_data_out[35]
*299 la_data_out[36]
*300 la_data_out[37]
*301 la_data_out[38]
*302 la_data_out[39]
*303 la_data_out[3]
*304 la_data_out[40]
*305 la_data_out[41]
*306 la_data_out[42]
*307 la_data_out[43]
*308 la_data_out[44]
*309 la_data_out[45]
*310 la_data_out[46]
*311 la_data_out[47]
*312 la_data_out[48]
*313 la_data_out[49]
*314 la_data_out[4]
*315 la_data_out[50]
*316 la_data_out[51]
*317 la_data_out[52]
*318 la_data_out[53]
*319 la_data_out[54]
*320 la_data_out[55]
*321 la_data_out[56]
*322 la_data_out[57]
*323 la_data_out[58]
*324 la_data_out[59]
*325 la_data_out[5]
*326 la_data_out[60]
*327 la_data_out[61]
*328 la_data_out[62]
*329 la_data_out[63]
*330 la_data_out[64]
*331 la_data_out[65]
*332 la_data_out[66]
*333 la_data_out[67]
*334 la_data_out[68]
*335 la_data_out[69]
*336 la_data_out[6]
*337 la_data_out[70]
*338 la_data_out[71]
*339 la_data_out[72]
*340 la_data_out[73]
*341 la_data_out[74]
*342 la_data_out[75]
*343 la_data_out[76]
*344 la_data_out[77]
*345 la_data_out[78]
*346 la_data_out[79]
*347 la_data_out[7]
*348 la_data_out[80]
*349 la_data_out[81]
*350 la_data_out[82]
*351 la_data_out[83]
*352 la_data_out[84]
*353 la_data_out[85]
*354 la_data_out[86]
*355 la_data_out[87]
*356 la_data_out[88]
*357 la_data_out[89]
*358 la_data_out[8]
*359 la_data_out[90]
*360 la_data_out[91]
*361 la_data_out[92]
*362 la_data_out[93]
*363 la_data_out[94]
*364 la_data_out[95]
*365 la_data_out[96]
*366 la_data_out[97]
*367 la_data_out[98]
*368 la_data_out[99]
*369 la_data_out[9]
*370 la_oen[0]
*371 la_oen[100]
*372 la_oen[101]
*373 la_oen[102]
*374 la_oen[103]
*375 la_oen[104]
*376 la_oen[105]
*377 la_oen[106]
*378 la_oen[107]
*379 la_oen[108]
*380 la_oen[109]
*381 la_oen[10]
*382 la_oen[110]
*383 la_oen[111]
*384 la_oen[112]
*385 la_oen[113]
*386 la_oen[114]
*387 la_oen[115]
*388 la_oen[116]
*389 la_oen[117]
*390 la_oen[118]
*391 la_oen[119]
*392 la_oen[11]
*393 la_oen[120]
*394 la_oen[121]
*395 la_oen[122]
*396 la_oen[123]
*397 la_oen[124]
*398 la_oen[125]
*399 la_oen[126]
*400 la_oen[127]
*401 la_oen[12]
*402 la_oen[13]
*403 la_oen[14]
*404 la_oen[15]
*405 la_oen[16]
*406 la_oen[17]
*407 la_oen[18]
*408 la_oen[19]
*409 la_oen[1]
*410 la_oen[20]
*411 la_oen[21]
*412 la_oen[22]
*413 la_oen[23]
*414 la_oen[24]
*415 la_oen[25]
*416 la_oen[26]
*417 la_oen[27]
*418 la_oen[28]
*419 la_oen[29]
*420 la_oen[2]
*421 la_oen[30]
*422 la_oen[31]
*423 la_oen[32]
*424 la_oen[33]
*425 la_oen[34]
*426 la_oen[35]
*427 la_oen[36]
*428 la_oen[37]
*429 la_oen[38]
*430 la_oen[39]
*431 la_oen[3]
*432 la_oen[40]
*433 la_oen[41]
*434 la_oen[42]
*435 la_oen[43]
*436 la_oen[44]
*437 la_oen[45]
*438 la_oen[46]
*439 la_oen[47]
*440 la_oen[48]
*441 la_oen[49]
*442 la_oen[4]
*443 la_oen[50]
*444 la_oen[51]
*445 la_oen[52]
*446 la_oen[53]
*447 la_oen[54]
*448 la_oen[55]
*449 la_oen[56]
*450 la_oen[57]
*451 la_oen[58]
*452 la_oen[59]
*453 la_oen[5]
*454 la_oen[60]
*455 la_oen[61]
*456 la_oen[62]
*457 la_oen[63]
*458 la_oen[64]
*459 la_oen[65]
*460 la_oen[66]
*461 la_oen[67]
*462 la_oen[68]
*463 la_oen[69]
*464 la_oen[6]
*465 la_oen[70]
*466 la_oen[71]
*467 la_oen[72]
*468 la_oen[73]
*469 la_oen[74]
*470 la_oen[75]
*471 la_oen[76]
*472 la_oen[77]
*473 la_oen[78]
*474 la_oen[79]
*475 la_oen[7]
*476 la_oen[80]
*477 la_oen[81]
*478 la_oen[82]
*479 la_oen[83]
*480 la_oen[84]
*481 la_oen[85]
*482 la_oen[86]
*483 la_oen[87]
*484 la_oen[88]
*485 la_oen[89]
*486 la_oen[8]
*487 la_oen[90]
*488 la_oen[91]
*489 la_oen[92]
*490 la_oen[93]
*491 la_oen[94]
*492 la_oen[95]
*493 la_oen[96]
*494 la_oen[97]
*495 la_oen[98]
*496 la_oen[99]
*497 la_oen[9]
*498 wb_clk_i
*499 wb_rst_i
*500 wbs_ack_o
*501 wbs_adr_i[0]
*502 wbs_adr_i[10]
*503 wbs_adr_i[11]
*504 wbs_adr_i[12]
*505 wbs_adr_i[13]
*506 wbs_adr_i[14]
*507 wbs_adr_i[15]
*508 wbs_adr_i[16]
*509 wbs_adr_i[17]
*510 wbs_adr_i[18]
*511 wbs_adr_i[19]
*512 wbs_adr_i[1]
*513 wbs_adr_i[20]
*514 wbs_adr_i[21]
*515 wbs_adr_i[22]
*516 wbs_adr_i[23]
*517 wbs_adr_i[24]
*518 wbs_adr_i[25]
*519 wbs_adr_i[26]
*520 wbs_adr_i[27]
*521 wbs_adr_i[28]
*522 wbs_adr_i[29]
*523 wbs_adr_i[2]
*524 wbs_adr_i[30]
*525 wbs_adr_i[31]
*526 wbs_adr_i[3]
*527 wbs_adr_i[4]
*528 wbs_adr_i[5]
*529 wbs_adr_i[6]
*530 wbs_adr_i[7]
*531 wbs_adr_i[8]
*532 wbs_adr_i[9]
*533 wbs_cyc_i
*534 wbs_dat_i[0]
*535 wbs_dat_i[10]
*536 wbs_dat_i[11]
*537 wbs_dat_i[12]
*538 wbs_dat_i[13]
*539 wbs_dat_i[14]
*540 wbs_dat_i[15]
*541 wbs_dat_i[16]
*542 wbs_dat_i[17]
*543 wbs_dat_i[18]
*544 wbs_dat_i[19]
*545 wbs_dat_i[1]
*546 wbs_dat_i[20]
*547 wbs_dat_i[21]
*548 wbs_dat_i[22]
*549 wbs_dat_i[23]
*550 wbs_dat_i[24]
*551 wbs_dat_i[25]
*552 wbs_dat_i[26]
*553 wbs_dat_i[27]
*554 wbs_dat_i[28]
*555 wbs_dat_i[29]
*556 wbs_dat_i[2]
*557 wbs_dat_i[30]
*558 wbs_dat_i[31]
*559 wbs_dat_i[3]
*560 wbs_dat_i[4]
*561 wbs_dat_i[5]
*562 wbs_dat_i[6]
*563 wbs_dat_i[7]
*564 wbs_dat_i[8]
*565 wbs_dat_i[9]
*566 wbs_dat_o[0]
*567 wbs_dat_o[10]
*568 wbs_dat_o[11]
*569 wbs_dat_o[12]
*570 wbs_dat_o[13]
*571 wbs_dat_o[14]
*572 wbs_dat_o[15]
*573 wbs_dat_o[16]
*574 wbs_dat_o[17]
*575 wbs_dat_o[18]
*576 wbs_dat_o[19]
*577 wbs_dat_o[1]
*578 wbs_dat_o[20]
*579 wbs_dat_o[21]
*580 wbs_dat_o[22]
*581 wbs_dat_o[23]
*582 wbs_dat_o[24]
*583 wbs_dat_o[25]
*584 wbs_dat_o[26]
*585 wbs_dat_o[27]
*586 wbs_dat_o[28]
*587 wbs_dat_o[29]
*588 wbs_dat_o[2]
*589 wbs_dat_o[30]
*590 wbs_dat_o[31]
*591 wbs_dat_o[3]
*592 wbs_dat_o[4]
*593 wbs_dat_o[5]
*594 wbs_dat_o[6]
*595 wbs_dat_o[7]
*596 wbs_dat_o[8]
*597 wbs_dat_o[9]
*598 wbs_sel_i[0]
*599 wbs_sel_i[1]
*600 wbs_sel_i[2]
*601 wbs_sel_i[3]
*602 wbs_stb_i
*603 wbs_we_i
*604 _0000_
*605 _0001_
*606 _0002_
*607 _0003_
*608 _0004_
*609 _0005_
*610 _0006_
*611 _0007_
*612 _0008_
*613 _0009_
*614 _0010_
*615 _0011_
*616 _0012_
*617 _0013_
*618 _0014_
*619 _0015_
*620 _0016_
*621 _0017_
*622 _0018_
*623 _0019_
*624 _0020_
*625 _0021_
*626 _0022_
*627 _0023_
*628 _0024_
*629 _0025_
*630 _0026_
*631 _0027_
*632 _0028_
*633 _0029_
*634 _0030_
*635 _0031_
*636 _0032_
*637 _0033_
*638 _0034_
*639 _0035_
*640 _0036_
*641 _0037_
*642 _0038_
*643 _0039_
*644 _0040_
*645 _0041_
*646 _0042_
*647 _0043_
*648 _0044_
*649 _0045_
*650 _0046_
*651 _0047_
*652 _0048_
*653 _0049_
*654 _0050_
*655 _0051_
*656 _0052_
*657 _0053_
*658 _0054_
*659 _0055_
*660 _0056_
*661 _0057_
*662 _0058_
*663 _0059_
*664 _0060_
*665 _0061_
*666 _0062_
*667 _0063_
*668 _0064_
*669 _0065_
*670 _0066_
*671 _0067_
*672 _0068_
*673 _0069_
*674 _0070_
*675 _0071_
*676 _0072_
*677 _0073_
*678 _0074_
*679 _0075_
*680 _0076_
*681 _0077_
*682 _0078_
*683 _0079_
*684 _0080_
*685 _0081_
*686 _0082_
*687 _0083_
*688 _0084_
*689 _0085_
*690 _0086_
*691 _0087_
*692 _0088_
*693 _0089_
*694 _0090_
*695 _0091_
*696 _0092_
*697 _0093_
*698 _0094_
*699 _0095_
*700 _0096_
*701 _0097_
*702 _0098_
*703 _0099_
*704 _0100_
*705 _0101_
*706 _0102_
*707 _0103_
*708 _0104_
*709 _0105_
*710 _0106_
*711 _0107_
*712 _0108_
*713 _0109_
*714 _0110_
*715 _0111_
*716 _0112_
*717 _0113_
*718 _0114_
*719 _0115_
*720 _0116_
*721 _0117_
*722 _0118_
*723 _0119_
*724 _0120_
*725 _0121_
*726 _0122_
*727 _0123_
*728 _0124_
*729 _0125_
*730 _0126_
*731 _0127_
*732 _0128_
*733 _0129_
*734 _0130_
*735 _0131_
*736 _0132_
*737 _0133_
*738 _0134_
*739 _0135_
*740 _0136_
*741 _0137_
*742 _0138_
*743 _0139_
*744 _0140_
*745 _0141_
*746 _0142_
*747 _0143_
*748 _0144_
*749 _0145_
*750 _0146_
*751 _0147_
*752 _0148_
*753 _0149_
*754 _0150_
*755 _0151_
*756 _0152_
*757 _0153_
*758 _0154_
*759 _0155_
*760 _0156_
*761 _0157_
*762 _0158_
*763 _0159_
*764 _0160_
*765 _0161_
*766 _0162_
*767 _0163_
*768 _0164_
*769 _0165_
*770 _0166_
*771 _0167_
*772 _0168_
*773 _0169_
*774 _0170_
*775 _0171_
*776 _0172_
*777 _0173_
*778 _0174_
*779 _0175_
*780 _0176_
*781 _0177_
*782 _0178_
*783 _0179_
*784 _0180_
*785 _0181_
*786 _0182_
*787 _0183_
*788 _0184_
*789 _0185_
*790 _0186_
*791 _0187_
*792 _0188_
*793 _0189_
*794 _0190_
*795 _0191_
*796 _0192_
*797 _0193_
*798 _0194_
*799 _0195_
*800 _0196_
*801 _0197_
*802 _0198_
*803 _0199_
*804 _0200_
*805 _0201_
*806 _0202_
*807 _0203_
*808 _0204_
*809 _0205_
*810 _0206_
*811 _0207_
*812 _0208_
*813 _0209_
*814 _0210_
*815 _0211_
*816 _0212_
*817 _0213_
*818 _0214_
*819 _0215_
*820 _0216_
*821 _0217_
*822 _0218_
*823 _0219_
*824 _0220_
*825 _0221_
*826 _0222_
*827 _0223_
*828 _0224_
*829 _0225_
*830 _0226_
*831 _0227_
*832 _0228_
*833 _0229_
*834 _0230_
*835 _0231_
*836 _0232_
*837 _0233_
*838 _0234_
*839 _0235_
*840 _0236_
*841 _0237_
*842 _0238_
*843 _0239_
*844 _0240_
*845 _0241_
*846 _0242_
*847 _0243_
*848 _0244_
*849 _0245_
*850 _0246_
*851 _0247_
*852 _0248_
*853 _0249_
*854 _0250_
*855 _0251_
*856 _0252_
*857 _0253_
*858 _0254_
*859 _0255_
*860 _0256_
*861 _0257_
*862 _0258_
*863 _0259_
*864 _0260_
*865 _0261_
*866 _0262_
*867 _0263_
*868 _0264_
*869 _0265_
*870 _0266_
*871 _0267_
*872 _0268_
*873 _0269_
*874 _0270_
*875 _0271_
*876 _0272_
*877 _0273_
*878 _0274_
*879 _0275_
*880 _0276_
*881 _0277_
*882 _0278_
*883 _0279_
*884 _0280_
*885 _0281_
*886 _0282_
*887 _0283_
*888 _0284_
*889 _0285_
*890 _0286_
*891 _0287_
*892 _0288_
*893 _0289_
*894 _0290_
*895 _0291_
*896 _0292_
*897 _0293_
*898 _0294_
*899 _0295_
*900 _0296_
*901 _0297_
*902 _0298_
*903 _0299_
*904 _0300_
*905 _0301_
*906 _0302_
*907 _0303_
*908 _0304_
*909 _0305_
*910 _0306_
*911 _0307_
*912 _0308_
*913 _0309_
*914 _0310_
*915 _0311_
*916 _0312_
*917 _0313_
*918 _0314_
*919 _0315_
*920 _0316_
*921 _0317_
*922 _0318_
*923 _0319_
*924 _0320_
*925 _0321_
*926 _0322_
*927 _0323_
*928 _0324_
*929 _0325_
*930 _0326_
*931 _0327_
*932 _0328_
*933 _0329_
*934 _0330_
*935 _0331_
*936 _0332_
*937 _0333_
*938 _0334_
*939 _0335_
*940 _0336_
*941 _0337_
*942 _0338_
*943 _0339_
*944 _0340_
*945 _0341_
*946 _0342_
*947 _0343_
*948 _0344_
*949 _0345_
*950 _0346_
*951 _0347_
*952 _0348_
*953 _0349_
*954 _0350_
*955 _0351_
*956 _0352_
*957 _0353_
*958 _0354_
*959 _0355_
*960 _0356_
*961 _0357_
*962 _0358_
*963 _0359_
*964 _0360_
*965 _0361_
*966 _0362_
*967 _0363_
*968 _0364_
*969 _0365_
*970 _0366_
*971 _0367_
*972 _0368_
*973 _0369_
*974 _0370_
*975 _0371_
*976 _0372_
*977 _0373_
*978 _0374_
*979 _0375_
*980 _0376_
*981 _0377_
*982 _0378_
*983 _0379_
*984 _0380_
*985 _0381_
*986 _0382_
*987 _0383_
*988 _0384_
*989 _0385_
*990 _0386_
*991 _0387_
*992 _0388_
*993 _0389_
*994 _0390_
*995 _0391_
*996 _0392_
*997 _0393_
*998 _0394_
*999 _0395_
*1000 _0396_
*1001 _0397_
*1002 _0398_
*1003 _0399_
*1004 _0400_
*1005 _0401_
*1006 _0402_
*1007 _0403_
*1008 _0404_
*1009 _0405_
*1010 _0406_
*1011 _0407_
*1012 _0408_
*1013 _0409_
*1014 _0410_
*1015 _0411_
*1016 _0412_
*1017 _0413_
*1018 _0414_
*1019 _0415_
*1020 _0416_
*1021 _0417_
*1022 _0418_
*1023 _0419_
*1024 _0420_
*1025 _0421_
*1026 _0422_
*1027 _0423_
*1028 _0424_
*1029 _0425_
*1030 _0426_
*1031 _0427_
*1032 _0428_
*1033 _0429_
*1034 _0430_
*1035 _0431_
*1036 _0432_
*1037 _0433_
*1038 _0434_
*1039 _0435_
*1040 _0436_
*1041 _0437_
*1042 _0438_
*1043 _0439_
*1044 _0440_
*1045 _0441_
*1046 _0442_
*1047 _0443_
*1048 _0444_
*1049 _0445_
*1050 _0446_
*1051 _0447_
*1052 _0448_
*1053 _0449_
*1054 _0450_
*1055 _0451_
*1056 _0452_
*1057 _0453_
*1058 _0454_
*1059 _0455_
*1060 _0456_
*1061 _0457_
*1062 _0458_
*1063 _0459_
*1064 _0460_
*1065 _0461_
*1066 _0462_
*1067 _0463_
*1068 _0464_
*1069 _0465_
*1070 _0466_
*1071 _0467_
*1072 _0468_
*1073 _0469_
*1074 _0470_
*1075 _0471_
*1076 _0472_
*1077 _0473_
*1078 _0474_
*1079 _0475_
*1080 _0476_
*1081 _0477_
*1082 _0478_
*1083 _0479_
*1084 _0480_
*1085 _0481_
*1086 _0482_
*1087 _0483_
*1088 _0484_
*1089 _0485_
*1090 _0486_
*1091 _0487_
*1092 _0488_
*1093 _0489_
*1094 _0490_
*1095 _0491_
*1096 _0492_
*1097 _0493_
*1098 _0494_
*1099 _0495_
*1100 _0496_
*1101 _0497_
*1102 _0498_
*1103 _0499_
*1104 _0500_
*1105 _0501_
*1106 _0502_
*1107 _0503_
*1108 _0504_
*1109 _0505_
*1110 _0506_
*1111 _0507_
*1112 _0508_
*1113 _0509_
*1114 _0510_
*1115 _0511_
*1116 _0512_
*1117 _0513_
*1118 _0514_
*1119 _0515_
*1120 _0516_
*1121 _0517_
*1122 _0518_
*1123 _0519_
*1124 _0520_
*1125 _0521_
*1126 counter.clk
*1127 clknet_0_counter.clk
*1128 clknet_1_0_0_counter.clk
*1129 clknet_1_1_0_counter.clk
*1130 clknet_2_0_0_counter.clk
*1131 clknet_2_1_0_counter.clk
*1132 clknet_2_2_0_counter.clk
*1133 clknet_2_3_0_counter.clk
*1134 clknet_3_0_0_counter.clk
*1135 clknet_3_1_0_counter.clk
*1136 clknet_3_2_0_counter.clk
*1137 clknet_3_3_0_counter.clk
*1138 clknet_3_4_0_counter.clk
*1139 clknet_3_5_0_counter.clk
*1140 clknet_3_6_0_counter.clk
*1141 clknet_3_7_0_counter.clk

*D_NET *0 0
*CONN
*P io_in[0] I
*CAP
*RES
*END

*D_NET *1 0
*CONN
*P io_in[10] I
*CAP
*RES
*END

*D_NET *2 0
*CONN
*P io_in[11] I
*CAP
*RES
*END

*D_NET *3 0
*CONN
*P io_in[12] I
*CAP
*RES
*END

*D_NET *4 0
*CONN
*P io_in[13] I
*CAP
*RES
*END

*D_NET *5 0
*CONN
*P io_in[14] I
*CAP
*RES
*END

*D_NET *6 0
*CONN
*P io_in[15] I
*CAP
*RES
*END

*D_NET *7 0
*CONN
*P io_in[16] I
*CAP
*RES
*END

*D_NET *8 0
*CONN
*P io_in[17] I
*CAP
*RES
*END

*D_NET *9 0
*CONN
*P io_in[18] I
*CAP
*RES
*END

*D_NET *10 0
*CONN
*P io_in[19] I
*CAP
*RES
*END

*D_NET *11 0
*CONN
*P io_in[1] I
*CAP
*RES
*END

*D_NET *12 0
*CONN
*P io_in[20] I
*CAP
*RES
*END

*D_NET *13 0
*CONN
*P io_in[21] I
*CAP
*RES
*END

*D_NET *14 0
*CONN
*P io_in[22] I
*CAP
*RES
*END

*D_NET *15 0
*CONN
*P io_in[23] I
*CAP
*RES
*END

*D_NET *16 0
*CONN
*P io_in[24] I
*CAP
*RES
*END

*D_NET *17 0
*CONN
*P io_in[25] I
*CAP
*RES
*END

*D_NET *18 0
*CONN
*P io_in[26] I
*CAP
*RES
*END

*D_NET *19 0
*CONN
*P io_in[27] I
*CAP
*RES
*END

*D_NET *20 0
*CONN
*P io_in[28] I
*CAP
*RES
*END

*D_NET *21 0
*CONN
*P io_in[29] I
*CAP
*RES
*END

*D_NET *22 0
*CONN
*P io_in[2] I
*CAP
*RES
*END

*D_NET *23 0
*CONN
*P io_in[30] I
*CAP
*RES
*END

*D_NET *24 0
*CONN
*P io_in[31] I
*CAP
*RES
*END

*D_NET *25 0
*CONN
*P io_in[32] I
*CAP
*RES
*END

*D_NET *26 0
*CONN
*P io_in[33] I
*CAP
*RES
*END

*D_NET *27 0
*CONN
*P io_in[34] I
*CAP
*RES
*END

*D_NET *28 0
*CONN
*P io_in[35] I
*CAP
*RES
*END

*D_NET *29 0
*CONN
*P io_in[36] I
*CAP
*RES
*END

*D_NET *30 0
*CONN
*P io_in[37] I
*CAP
*RES
*END

*D_NET *31 0
*CONN
*P io_in[3] I
*CAP
*RES
*END

*D_NET *32 0
*CONN
*P io_in[4] I
*CAP
*RES
*END

*D_NET *33 0
*CONN
*P io_in[5] I
*CAP
*RES
*END

*D_NET *34 0
*CONN
*P io_in[6] I
*CAP
*RES
*END

*D_NET *35 0
*CONN
*P io_in[7] I
*CAP
*RES
*END

*D_NET *36 0
*CONN
*P io_in[8] I
*CAP
*RES
*END

*D_NET *37 0
*CONN
*P io_in[9] I
*CAP
*RES
*END

*D_NET *38 0.00316451931542
*CONN
*P io_oeb[0] O
*I _1149_:X O
*CAP
0 *38:1 9.002024044000002e-05
1 *38:3 0.00172655659424
2 *38:5 0.0013479424807400003
3 _1149_:X 0
4 *38:4 0
*RES
0 *38:1 *38:2 0.9107142857142857
1 *38:3 *38:4 18.07142857142857
2 *38:5 *38:6 15.330357142857142
3 _1149_:X _1149_:X 0
4 _1149_:X *38:2 0
5 *38:4 *38:1 0
6 *38:3 *38:5 0
*END

*D_NET *39 0.0011864224218600002
*CONN
*P io_oeb[10] O
*I _1159_:X O
*CAP
5 _1159_:X 5.034052896000001e-05
6 *39:2 0.0011360818929000002
7 *39:1 0
*RES
7 _1159_:X *39:1 0.4107142857142857
8 *39:2 *39:3 12.901785714285712
9 _1159_:X _1159_:X 0
10 *39:1 *39:2 0
*END

*D_NET *40 0.0011864224218600002
*CONN
*P io_oeb[11] O
*I _1160_:X O
*CAP
8 _1160_:X 5.034052896000001e-05
9 *40:2 0.0011360818929000002
10 *40:1 0
*RES
11 _1160_:X *40:1 0.4107142857142857
12 *40:2 *40:3 12.901785714285712
13 _1160_:X _1160_:X 0
14 *40:1 *40:2 0
*END

*D_NET *41 0.0011864224218600002
*CONN
*P io_oeb[12] O
*I _1161_:X O
*CAP
11 _1161_:X 5.034052896000001e-05
12 *41:2 0.0011360818929000002
13 *41:1 0
*RES
15 _1161_:X *41:1 0.4107142857142857
16 *41:2 *41:3 12.901785714285712
17 _1161_:X _1161_:X 0
18 *41:1 *41:2 0
*END

*D_NET *42 0.0011864224218600002
*CONN
*P io_oeb[13] O
*I _1162_:X O
*CAP
14 _1162_:X 5.034052896000001e-05
15 *42:2 0.0011360818929000002
16 *42:1 0
*RES
19 _1162_:X *42:1 0.4107142857142857
20 *42:2 *42:3 12.901785714285712
21 _1162_:X _1162_:X 0
22 *42:1 *42:2 0
*END

*D_NET *43 0.0014203130356200003
*CONN
*P io_oeb[14] O
*I _1163_:X O
*CAP
17 *43:1 0.00028423114272
18 *43:2 0.0011360818929000002
19 _1163_:X 0
*RES
23 *43:1 _1163_:X 2.875
24 *43:2 *43:3 12.901785714285712
25 _1163_:X _1163_:X 0
26 *43:1 *43:2 0
*END

*D_NET *44 0.0011864224218600002
*CONN
*P io_oeb[15] O
*I _1164_:X O
*CAP
20 _1164_:X 5.034052896000001e-05
21 *44:2 0.0011360818929000002
22 *44:1 0
*RES
27 _1164_:X *44:1 0.4107142857142857
28 *44:2 *44:3 12.901785714285712
29 _1164_:X _1164_:X 0
30 *44:1 *44:2 0
*END

*D_NET *45 0.0011864224218600002
*CONN
*P io_oeb[16] O
*I _1165_:X O
*CAP
23 _1165_:X 5.034052896000001e-05
24 *45:2 0.0011360818929000002
25 *45:1 0
*RES
31 _1165_:X *45:1 0.4107142857142857
32 *45:2 *45:3 12.901785714285712
33 _1165_:X _1165_:X 0
34 *45:1 *45:2 0
*END

*D_NET *46 0.0011864224218600002
*CONN
*P io_oeb[17] O
*I _1166_:X O
*CAP
26 _1166_:X 5.034052896000001e-05
27 *46:2 0.0011360818929000002
28 *46:1 0
*RES
35 _1166_:X *46:1 0.4107142857142857
36 *46:2 *46:3 12.901785714285712
37 _1166_:X _1166_:X 0
38 *46:1 *46:2 0
*END

*D_NET *47 0.0011360818929000002
*CONN
*P io_oeb[18] O
*I _1167_:X O
*CAP
29 *47:1 0.0011360818929000002
30 _1167_:X 0
*RES
39 *47:1 *47:2 12.901785714285712
40 _1167_:X _1167_:X 0
41 _1167_:X *47:1 0
*END

*D_NET *48 0.0011360818929000002
*CONN
*P io_oeb[19] O
*I _1168_:X O
*CAP
31 *48:1 0.0011360818929000002
32 _1168_:X 0
*RES
42 *48:1 *48:2 12.901785714285712
43 _1168_:X _1168_:X 0
44 _1168_:X *48:1 0
*END

*D_NET *49 0.0028390255327800005
*CONN
*P io_oeb[1] O
*I _1150_:X O
*CAP
33 *49:1 0.00011650281392
34 *49:3 0.0005181217564799999
35 *49:5 0.0013744250542200003
36 *49:7 0.00082997590816
37 *49:4 0
38 _1150_:X 0
*RES
45 *49:1 *49:2 1.2142857142857142
46 *49:3 *49:4 5.339285714285714
47 *49:5 *49:6 15.633928571428571
48 *49:7 _1150_:X 8.625
49 *49:7 *49:2 0
50 *49:4 *49:1 0
51 *49:3 *49:5 0
52 _1150_:X _1150_:X 0
*END

*D_NET *50 0.0011360818929000002
*CONN
*P io_oeb[20] O
*I _1169_:X O
*CAP
39 *50:1 0.0011360818929000002
40 _1169_:X 0
*RES
53 *50:1 *50:2 12.901785714285712
54 _1169_:X _1169_:X 0
55 _1169_:X *50:1 0
*END

*D_NET *51 0.00126438595978
*CONN
*P io_oeb[21] O
*I _1170_:X O
*CAP
41 _1170_:X 0.00012830406688
42 *51:2 0.0011360818929000002
43 *51:1 0
*RES
56 _1170_:X *51:1 1.232142857142857
57 *51:2 *51:3 12.901785714285712
58 _1170_:X _1170_:X 0
59 *51:1 *51:2 0
*END

*D_NET *52 0.0011360818929000002
*CONN
*P io_oeb[22] O
*I _1171_:X O
*CAP
44 *52:1 0.0011360818929000002
45 _1171_:X 0
*RES
60 *52:1 *52:2 12.901785714285712
61 _1171_:X _1171_:X 0
62 _1171_:X *52:1 0
*END

*D_NET *53 0.00126438595978
*CONN
*P io_oeb[23] O
*I _1172_:X O
*CAP
46 *53:1 0.00012830406688
47 *53:2 0.0011360818929000002
48 _1172_:X 0
*RES
63 *53:1 _1172_:X 1.232142857142857
64 *53:2 *53:3 12.901785714285712
65 _1172_:X _1172_:X 0
66 *53:1 *53:2 0
*END

*D_NET *54 0.0011864224218600002
*CONN
*P io_oeb[24] O
*I _1173_:X O
*CAP
49 *54:1 5.034052896000001e-05
50 *54:2 0.0011360818929000002
51 _1173_:X 0
*RES
67 *54:1 _1173_:X 0.4107142857142857
68 *54:2 *54:3 12.901785714285712
69 _1173_:X _1173_:X 0
70 *54:1 *54:2 0
*END

*D_NET *55 0.0011864224218600002
*CONN
*P io_oeb[25] O
*I _1174_:X O
*CAP
52 *55:1 5.034052896000001e-05
53 *55:2 0.0011360818929000002
54 _1174_:X 0
*RES
71 *55:1 _1174_:X 0.4107142857142857
72 *55:2 *55:3 12.901785714285712
73 _1174_:X _1174_:X 0
74 *55:1 *55:2 0
*END

*D_NET *56 0.0011864224218600002
*CONN
*P io_oeb[26] O
*I _1175_:X O
*CAP
55 *56:1 5.034052896000001e-05
56 *56:2 0.0011360818929000002
57 _1175_:X 0
*RES
75 *56:1 _1175_:X 0.4107142857142857
76 *56:2 *56:3 12.901785714285712
77 _1175_:X _1175_:X 0
78 *56:1 *56:2 0
*END

*D_NET *57 0.0011360818929000002
*CONN
*P io_oeb[27] O
*I _1176_:X O
*CAP
58 *57:1 0.0011360818929000002
59 _1176_:X 0
*RES
79 *57:1 *57:2 12.901785714285712
80 _1176_:X _1176_:X 0
81 _1176_:X *57:1 0
*END

*D_NET *58 0.0011864224218600002
*CONN
*P io_oeb[28] O
*I _1177_:X O
*CAP
60 _1177_:X 5.034052896000001e-05
61 *58:2 0.0011360818929000002
62 *58:1 0
*RES
82 _1177_:X *58:1 0.4107142857142857
83 *58:2 *58:3 12.901785714285712
84 _1177_:X _1177_:X 0
85 *58:1 *58:2 0
*END

*D_NET *59 0.0012254041908200002
*CONN
*P io_oeb[29] O
*I _1178_:X O
*CAP
63 _1178_:X 8.932229792e-05
64 *59:2 0.0011360818929000002
65 *59:1 0
*RES
86 _1178_:X *59:1 0.8214285714285714
87 *59:2 *59:3 12.901785714285712
88 _1178_:X _1178_:X 0
89 *59:1 *59:2 0
*END

*D_NET *60 0.0021219848769
*CONN
*P io_oeb[2] O
*I _1151_:X O
*CAP
66 *60:1 0.000985902984
67 *60:2 0.0011360818929000002
68 _1151_:X 0
*RES
90 *60:1 _1151_:X 10.267857142857142
91 *60:2 *60:3 12.901785714285712
92 _1151_:X _1151_:X 0
93 *60:1 *60:2 0
*END

*D_NET *61 0.0013813312666600003
*CONN
*P io_oeb[30] O
*I _1179_:X O
*CAP
69 _1179_:X 0.00024524937376
70 *61:2 0.0011360818929000002
71 *61:1 0
*RES
94 _1179_:X *61:1 2.464285714285714
95 *61:2 *61:3 12.901785714285712
96 _1179_:X _1179_:X 0
97 *61:1 *61:2 0
*END

*D_NET *62 0.0014203130356200003
*CONN
*P io_oeb[31] O
*I _1180_:X O
*CAP
72 *62:1 0.0011360818929000002
73 _1180_:X 0.00028423114272
74 *62:3 0
*RES
98 *62:1 *62:2 12.901785714285712
99 _1180_:X *62:3 2.875
100 _1180_:X _1180_:X 0
101 *62:3 *62:1 0
*END

*D_NET *63 0.00169318541834
*CONN
*P io_oeb[32] O
*I _1181_:X O
*CAP
75 _1181_:X 0.00055710352544
76 *63:2 0.0011360818929000002
77 *63:1 0
*RES
102 _1181_:X *63:1 5.75
103 *63:2 *63:3 12.901785714285712
104 _1181_:X _1181_:X 0
105 *63:1 *63:2 0
*END

*D_NET *64 0.0017711489562600002
*CONN
*P io_oeb[33] O
*I _1182_:X O
*CAP
78 _1182_:X 0.00063506706336
79 *64:2 0.0011360818929000002
80 *64:1 0
*RES
106 _1182_:X *64:1 6.571428571428571
107 *64:2 *64:3 12.901785714285712
108 _1182_:X _1182_:X 0
109 *64:1 *64:2 0
*END

*D_NET *65 0.0020440213389800004
*CONN
*P io_oeb[34] O
*I _1183_:X O
*CAP
81 _1183_:X 0.00090793944608
82 *65:2 0.0011360818929000002
83 *65:1 0
*RES
110 _1183_:X *65:1 9.446428571428571
111 *65:2 *65:3 12.901785714285712
112 _1183_:X _1183_:X 0
113 *65:1 *65:2 0
*END

*D_NET *66 0.00251729600618
*CONN
*P io_oeb[35] O
*I _1184_:X O
*CAP
84 _1184_:X 0.0012977571356799999
85 *66:2 0.00036808726198
86 *66:4 0.0008514516085200002
87 *66:1 0
*RES
114 _1184_:X *66:1 13.553571428571427
115 *66:2 *66:3 4.098214285714286
116 *66:4 *66:3 0.4107142857142857
117 *66:4 *66:5 9.107142857142856
118 _1184_:X _1184_:X 0
119 *66:1 *66:2 0
*END

*D_NET *67 0.09825255749089995
*CONN
*P io_oeb[36] O
*I _1184_:A I
*I _1183_:A I
*I _1182_:A I
*I _1181_:A I
*I _1180_:A I
*I _1179_:A I
*I _1178_:A I
*I _1177_:A I
*I _1176_:A I
*I _1175_:A I
*I _1174_:A I
*I _1173_:A I
*I _1172_:A I
*I _1171_:A I
*I _1170_:A I
*I _1169_:A I
*I _1168_:A I
*I _1167_:A I
*I _1166_:A I
*I _1165_:A I
*I _1164_:A I
*I _1163_:A I
*I _1162_:A I
*I _1161_:A I
*I _1160_:A I
*I _1159_:A I
*I _1158_:A I
*I _1157_:A I
*I _1156_:A I
*I _1155_:A I
*I _1154_:A I
*I _1153_:A I
*I _1152_:A I
*I _1151_:A I
*I _1150_:A I
*I _1149_:A I
*I _0766_:A I
*I _0749_:A I
*I _0712_:A I
*I _0658_:A I
*I _0526_:X O
*CAP
88 _1154_:A 0.00110284829088
89 *67:1 9.002024044000002e-05
90 *67:3 0.00082997590816
91 *67:5 0.0013479424807400003
92 _1152_:A 0.00110284829088
93 _1151_:A 0.0010638665219200002
94 _1150_:A 0.0010248847529600001
95 _1149_:A 0.0009469212150399999
96 _1153_:A 0.0012977571356799999
97 _1165_:A 0.0013367389046400001
98 _1166_:A 0.0014147024425599998
99 _1171_:A 0.00145368421152
100 _1172_:A 0.0012977571356799999
101 _1160_:A 0.0013757206736000002
102 _1159_:A 0.0013367389046400001
103 _1178_:A 0.0011808118288000001
104 _1179_:A 0.0013367389046400001
105 *67:7 0.00024524937376
106 _1156_:A 0.0010248847529600001
107 _1157_:A 0.0013367389046400001
108 _1155_:A 0.0012977571356799999
109 _1158_:A 0.0012977571356799999
110 _1163_:A 0.0010638665219200002
111 _1162_:A 0.0016485930563200002
112 _1161_:A 0.0013367389046400001
113 _1164_:A 0.0013367389046400001
114 _1169_:A 0.00125877536672
115 _1168_:A 0.0013367389046400001
116 _1167_:A 0.0013367389046400001
117 _1170_:A 0.00145368421152
118 _1174_:A 0.0013367389046400001
119 _1175_:A 0.0012977571356799999
120 _1176_:A 0.0013367389046400001
121 _1173_:A 0.0013367389046400001
122 _1177_:A 0.0012977571356799999
123 _1181_:A 0.00125877536672
124 _1182_:A 0.00110284829088
125 _1183_:A 0.000985902984
126 *67:8 0.0019124858848000002
127 _1180_:A 0.0010638665219200002
128 _0766_:A 4.017137184e-05
129 *67:10 8.932229792e-05
130 *67:12 0.00036338428352000003
131 *67:14 0.0010650561248000002
132 *67:15 0.00044015821855999997
133 _0526_:X 0.00016728583584
134 *67:17 0.00022243310784000002
135 *67:19 0.04044946222396