*SPEF "IEEE 1481-1998"
*DESIGN "user_proj_example"
*DATE "Fri Nov 27 00:49:10 2020"
*VENDOR "AUC CSCE Department"
*PROGRAM "SPEF Extractor"
*VERSION "1.0"
*DESIGN_FLOW "PIN_CAP NONE"
*DIVIDER /
*DELIMITER :
*BUS_DELIMITER []
*T_UNIT 1.00000 NS
*C_UNIT 1.00000 PF
*R_UNIT 1.00000 OHM
*L_UNIT 1.00000 HENRY


*NAME_MAP
*0 io_in[0]
*1 io_in[10]
*2 io_in[11]
*3 io_in[12]
*4 io_in[13]
*5 io_in[14]
*6 io_in[15]
*7 io_in[16]
*8 io_in[17]
*9 io_in[18]
*10 io_in[19]
*11 io_in[1]
*12 io_in[20]
*13 io_in[21]
*14 io_in[22]
*15 io_in[23]
*16 io_in[24]
*17 io_in[25]
*18 io_in[26]
*19 io_in[27]
*20 io_in[28]
*21 io_in[29]
*22 io_in[2]
*23 io_in[30]
*24 io_in[31]
*25 io_in[32]
*26 io_in[33]
*27 io_in[34]
*28 io_in[35]
*29 io_in[36]
*30 io_in[37]
*31 io_in[3]
*32 io_in[4]
*33 io_in[5]
*34 io_in[6]
*35 io_in[7]
*36 io_in[8]
*37 io_in[9]
*38 io_oeb[0]
*39 io_oeb[10]
*40 io_oeb[11]
*41 io_oeb[12]
*42 io_oeb[13]
*43 io_oeb[14]
*44 io_oeb[15]
*45 io_oeb[16]
*46 io_oeb[17]
*47 io_oeb[18]
*48 io_oeb[19]
*49 io_oeb[1]
*50 io_oeb[20]
*51 io_oeb[21]
*52 io_oeb[22]
*53 io_oeb[23]
*54 io_oeb[24]
*55 io_oeb[25]
*56 io_oeb[26]
*57 io_oeb[27]
*58 io_oeb[28]
*59 io_oeb[29]
*60 io_oeb[2]
*61 io_oeb[30]
*62 io_oeb[31]
*63 io_oeb[32]
*64 io_oeb[33]
*65 io_oeb[34]
*66 io_oeb[35]
*67 io_oeb[36]
*68 io_oeb[37]
*69 io_oeb[3]
*70 io_oeb[4]
*71 io_oeb[5]
*72 io_oeb[6]
*73 io_oeb[7]
*74 io_oeb[8]
*75 io_oeb[9]
*76 io_out[0]
*77 io_out[10]
*78 io_out[11]
*79 io_out[12]
*80 io_out[13]
*81 io_out[14]
*82 io_out[15]
*83 io_out[16]
*84 io_out[17]
*85 io_out[18]
*86 io_out[19]
*87 io_out[1]
*88 io_out[20]
*89 io_out[21]
*90 io_out[22]
*91 io_out[23]
*92 io_out[24]
*93 io_out[25]
*94 io_out[26]
*95 io_out[27]
*96 io_out[28]
*97 io_out[29]
*98 io_out[2]
*99 io_out[30]
*100 io_out[31]
*101 io_out[32]
*102 io_out[33]
*103 io_out[34]
*104 io_out[35]
*105 io_out[36]
*106 io_out[37]
*107 io_out[3]
*108 io_out[4]
*109 io_out[5]
*110 io_out[6]
*111 io_out[7]
*112 io_out[8]
*113 io_out[9]
*114 la_data_in[0]
*115 la_data_in[100]
*116 la_data_in[101]
*117 la_data_in[102]
*118 la_data_in[103]
*119 la_data_in[104]
*120 la_data_in[105]
*121 la_data_in[106]
*122 la_data_in[107]
*123 la_data_in[108]
*124 la_data_in[109]
*125 la_data_in[10]
*126 la_data_in[110]
*127 la_data_in[111]
*128 la_data_in[112]
*129 la_data_in[113]
*130 la_data_in[114]
*131 la_data_in[115]
*132 la_data_in[116]
*133 la_data_in[117]
*134 la_data_in[118]
*135 la_data_in[119]
*136 la_data_in[11]
*137 la_data_in[120]
*138 la_data_in[121]
*139 la_data_in[122]
*140 la_data_in[123]
*141 la_data_in[124]
*142 la_data_in[125]
*143 la_data_in[126]
*144 la_data_in[127]
*145 la_data_in[12]
*146 la_data_in[13]
*147 la_data_in[14]
*148 la_data_in[15]
*149 la_data_in[16]
*150 la_data_in[17]
*151 la_data_in[18]
*152 la_data_in[19]
*153 la_data_in[1]
*154 la_data_in[20]
*155 la_data_in[21]
*156 la_data_in[22]
*157 la_data_in[23]
*158 la_data_in[24]
*159 la_data_in[25]
*160 la_data_in[26]
*161 la_data_in[27]
*162 la_data_in[28]
*163 la_data_in[29]
*164 la_data_in[2]
*165 la_data_in[30]
*166 la_data_in[31]
*167 la_data_in[32]
*168 la_data_in[33]
*169 la_data_in[34]
*170 la_data_in[35]
*171 la_data_in[36]
*172 la_data_in[37]
*173 la_data_in[38]
*174 la_data_in[39]
*175 la_data_in[3]
*176 la_data_in[40]
*177 la_data_in[41]
*178 la_data_in[42]
*179 la_data_in[43]
*180 la_data_in[44]
*181 la_data_in[45]
*182 la_data_in[46]
*183 la_data_in[47]
*184 la_data_in[48]
*185 la_data_in[49]
*186 la_data_in[4]
*187 la_data_in[50]
*188 la_data_in[51]
*189 la_data_in[52]
*190 la_data_in[53]
*191 la_data_in[54]
*192 la_data_in[55]
*193 la_data_in[56]
*194 la_data_in[57]
*195 la_data_in[58]
*196 la_data_in[59]
*197 la_data_in[5]
*198 la_data_in[60]
*199 la_data_in[61]
*200 la_data_in[62]
*201 la_data_in[63]
*202 la_data_in[64]
*203 la_data_in[65]
*204 la_data_in[66]
*205 la_data_in[67]
*206 la_data_in[68]
*207 la_data_in[69]
*208 la_data_in[6]
*209 la_data_in[70]
*210 la_data_in[71]
*211 la_data_in[72]
*212 la_data_in[73]
*213 la_data_in[74]
*214 la_data_in[75]
*215 la_data_in[76]
*216 la_data_in[77]
*217 la_data_in[78]
*218 la_data_in[79]
*219 la_data_in[7]
*220 la_data_in[80]
*221 la_data_in[81]
*222 la_data_in[82]
*223 la_data_in[83]
*224 la_data_in[84]
*225 la_data_in[85]
*226 la_data_in[86]
*227 la_data_in[87]
*228 la_data_in[88]
*229 la_data_in[89]
*230 la_data_in[8]
*231 la_data_in[90]
*232 la_data_in[91]
*233 la_data_in[92]
*234 la_data_in[93]
*235 la_data_in[94]
*236 la_data_in[95]
*237 la_data_in[96]
*238 la_data_in[97]
*239 la_data_in[98]
*240 la_data_in[99]
*241 la_data_in[9]
*242 la_data_out[0]
*243 la_data_out[100]
*244 la_data_out[101]
*245 la_data_out[102]
*246 la_data_out[103]
*247 la_data_out[104]
*248 la_data_out[105]
*249 la_data_out[106]
*250 la_data_out[107]
*251 la_data_out[108]
*252 la_data_out[109]
*253 la_data_out[10]
*254 la_data_out[110]
*255 la_data_out[111]
*256 la_data_out[112]
*257 la_data_out[113]
*258 la_data_out[114]
*259 la_data_out[115]
*260 la_data_out[116]
*261 la_data_out[117]
*262 la_data_out[118]
*263 la_data_out[119]
*264 la_data_out[11]
*265 la_data_out[120]
*266 la_data_out[121]
*267 la_data_out[122]
*268 la_data_out[123]
*269 la_data_out[124]
*270 la_data_out[125]
*271 la_data_out[126]
*272 la_data_out[127]
*273 la_data_out[12]
*274 la_data_out[13]
*275 la_data_out[14]
*276 la_data_out[15]
*277 la_data_out[16]
*278 la_data_out[17]
*279 la_data_out[18]
*280 la_data_out[19]
*281 la_data_out[1]
*282 la_data_out[20]
*283 la_data_out[21]
*284 la_data_out[22]
*285 la_data_out[23]
*286 la_data_out[24]
*287 la_data_out[25]
*288 la_data_out[26]
*289 la_data_out[27]
*290 la_data_out[28]
*291 la_data_out[29]
*292 la_data_out[2]
*293 la_data_out[30]
*294 la_data_out[31]
*295 la_data_out[32]
*296 la_data_out[33]
*297 la_data_out[34]
*298 la_data_out[35]
*299 la_data_out[36]
*300 la_data_out[37]
*301 la_data_out[38]
*302 la_data_out[39]
*303 la_data_out[3]
*304 la_data_out[40]
*305 la_data_out[41]
*306 la_data_out[42]
*307 la_data_out[43]
*308 la_data_out[44]
*309 la_data_out[45]
*310 la_data_out[46]
*311 la_data_out[47]
*312 la_data_out[48]
*313 la_data_out[49]
*314 la_data_out[4]
*315 la_data_out[50]
*316 la_data_out[51]
*317 la_data_out[52]
*318 la_data_out[53]
*319 la_data_out[54]
*320 la_data_out[55]
*321 la_data_out[56]
*322 la_data_out[57]
*323 la_data_out[58]
*324 la_data_out[59]
*325 la_data_out[5]
*326 la_data_out[60]
*327 la_data_out[61]
*328 la_data_out[62]
*329 la_data_out[63]
*330 la_data_out[64]
*331 la_data_out[65]
*332 la_data_out[66]
*333 la_data_out[67]
*334 la_data_out[68]
*335 la_data_out[69]
*336 la_data_out[6]
*337 la_data_out[70]
*338 la_data_out[71]
*339 la_data_out[72]
*340 la_data_out[73]
*341 la_data_out[74]
*342 la_data_out[75]
*343 la_data_out[76]
*344 la_data_out[77]
*345 la_data_out[78]
*346 la_data_out[79]
*347 la_data_out[7]
*348 la_data_out[80]
*349 la_data_out[81]
*350 la_data_out[82]
*351 la_data_out[83]
*352 la_data_out[84]
*353 la_data_out[85]
*354 la_data_out[86]
*355 la_data_out[87]
*356 la_data_out[88]
*357 la_data_out[89]
*358 la_data_out[8]
*359 la_data_out[90]
*360 la_data_out[91]
*361 la_data_out[92]
*362 la_data_out[93]
*363 la_data_out[94]
*364 la_data_out[95]
*365 la_data_out[96]
*366 la_data_out[97]
*367 la_data_out[98]
*368 la_data_out[99]
*369 la_data_out[9]
*370 la_oen[0]
*371 la_oen[100]
*372 la_oen[101]
*373 la_oen[102]
*374 la_oen[103]
*375 la_oen[104]
*376 la_oen[105]
*377 la_oen[106]
*378 la_oen[107]
*379 la_oen[108]
*380 la_oen[109]
*381 la_oen[10]
*382 la_oen[110]
*383 la_oen[111]
*384 la_oen[112]
*385 la_oen[113]
*386 la_oen[114]
*387 la_oen[115]
*388 la_oen[116]
*389 la_oen[117]
*390 la_oen[118]
*391 la_oen[119]
*392 la_oen[11]
*393 la_oen[120]
*394 la_oen[121]
*395 la_oen[122]
*396 la_oen[123]
*397 la_oen[124]
*398 la_oen[125]
*399 la_oen[126]
*400 la_oen[127]
*401 la_oen[12]
*402 la_oen[13]
*403 la_oen[14]
*404 la_oen[15]
*405 la_oen[16]
*406 la_oen[17]
*407 la_oen[18]
*408 la_oen[19]
*409 la_oen[1]
*410 la_oen[20]
*411 la_oen[21]
*412 la_oen[22]
*413 la_oen[23]
*414 la_oen[24]
*415 la_oen[25]
*416 la_oen[26]
*417 la_oen[27]
*418 la_oen[28]
*419 la_oen[29]
*420 la_oen[2]
*421 la_oen[30]
*422 la_oen[31]
*423 la_oen[32]
*424 la_oen[33]
*425 la_oen[34]
*426 la_oen[35]
*427 la_oen[36]
*428 la_oen[37]
*429 la_oen[38]
*430 la_oen[39]
*431 la_oen[3]
*432 la_oen[40]
*433 la_oen[41]
*434 la_oen[42]
*435 la_oen[43]
*436 la_oen[44]
*437 la_oen[45]
*438 la_oen[46]
*439 la_oen[47]
*440 la_oen[48]
*441 la_oen[49]
*442 la_oen[4]
*443 la_oen[50]
*444 la_oen[51]
*445 la_oen[52]
*446 la_oen[53]
*447 la_oen[54]
*448 la_oen[55]
*449 la_oen[56]
*450 la_oen[57]
*451 la_oen[58]
*452 la_oen[59]
*453 la_oen[5]
*454 la_oen[60]
*455 la_oen[61]
*456 la_oen[62]
*457 la_oen[63]
*458 la_oen[64]
*459 la_oen[65]
*460 la_oen[66]
*461 la_oen[67]
*462 la_oen[68]
*463 la_oen[69]
*464 la_oen[6]
*465 la_oen[70]
*466 la_oen[71]
*467 la_oen[72]
*468 la_oen[73]
*469 la_oen[74]
*470 la_oen[75]
*471 la_oen[76]
*472 la_oen[77]
*473 la_oen[78]
*474 la_oen[79]
*475 la_oen[7]
*476 la_oen[80]
*477 la_oen[81]
*478 la_oen[82]
*479 la_oen[83]
*480 la_oen[84]
*481 la_oen[85]
*482 la_oen[86]
*483 la_oen[87]
*484 la_oen[88]
*485 la_oen[89]
*486 la_oen[8]
*487 la_oen[90]
*488 la_oen[91]
*489 la_oen[92]
*490 la_oen[93]
*491 la_oen[94]
*492 la_oen[95]
*493 la_oen[96]
*494 la_oen[97]
*495 la_oen[98]
*496 la_oen[99]
*497 la_oen[9]
*498 vccd1
*499 vccd2
*500 vdda1
*501 vdda2
*502 vssa1
*503 vssa2
*504 vssd1
*505 vssd2
*506 wb_clk_i
*507 wb_rst_i
*508 wbs_ack_o
*509 wbs_adr_i[0]
*510 wbs_adr_i[10]
*511 wbs_adr_i[11]
*512 wbs_adr_i[12]
*513 wbs_adr_i[13]
*514 wbs_adr_i[14]
*515 wbs_adr_i[15]
*516 wbs_adr_i[16]
*517 wbs_adr_i[17]
*518 wbs_adr_i[18]
*519 wbs_adr_i[19]
*520 wbs_adr_i[1]
*521 wbs_adr_i[20]
*522 wbs_adr_i[21]
*523 wbs_adr_i[22]
*524 wbs_adr_i[23]
*525 wbs_adr_i[24]
*526 wbs_adr_i[25]
*527 wbs_adr_i[26]
*528 wbs_adr_i[27]
*529 wbs_adr_i[28]
*530 wbs_adr_i[29]
*531 wbs_adr_i[2]
*532 wbs_adr_i[30]
*533 wbs_adr_i[31]
*534 wbs_adr_i[3]
*535 wbs_adr_i[4]
*536 wbs_adr_i[5]
*537 wbs_adr_i[6]
*538 wbs_adr_i[7]
*539 wbs_adr_i[8]
*540 wbs_adr_i[9]
*541 wbs_cyc_i
*542 wbs_dat_i[0]
*543 wbs_dat_i[10]
*544 wbs_dat_i[11]
*545 wbs_dat_i[12]
*546 wbs_dat_i[13]
*547 wbs_dat_i[14]
*548 wbs_dat_i[15]
*549 wbs_dat_i[16]
*550 wbs_dat_i[17]
*551 wbs_dat_i[18]
*552 wbs_dat_i[19]
*553 wbs_dat_i[1]
*554 wbs_dat_i[20]
*555 wbs_dat_i[21]
*556 wbs_dat_i[22]
*557 wbs_dat_i[23]
*558 wbs_dat_i[24]
*559 wbs_dat_i[25]
*560 wbs_dat_i[26]
*561 wbs_dat_i[27]
*562 wbs_dat_i[28]
*563 wbs_dat_i[29]
*564 wbs_dat_i[2]
*565 wbs_dat_i[30]
*566 wbs_dat_i[31]
*567 wbs_dat_i[3]
*568 wbs_dat_i[4]
*569 wbs_dat_i[5]
*570 wbs_dat_i[6]
*571 wbs_dat_i[7]
*572 wbs_dat_i[8]
*573 wbs_dat_i[9]
*574 wbs_dat_o[0]
*575 wbs_dat_o[10]
*576 wbs_dat_o[11]
*577 wbs_dat_o[12]
*578 wbs_dat_o[13]
*579 wbs_dat_o[14]
*580 wbs_dat_o[15]
*581 wbs_dat_o[16]
*582 wbs_dat_o[17]
*583 wbs_dat_o[18]
*584 wbs_dat_o[19]
*585 wbs_dat_o[1]
*586 wbs_dat_o[20]
*587 wbs_dat_o[21]
*588 wbs_dat_o[22]
*589 wbs_dat_o[23]
*590 wbs_dat_o[24]
*591 wbs_dat_o[25]
*592 wbs_dat_o[26]
*593 wbs_dat_o[27]
*594 wbs_dat_o[28]
*595 wbs_dat_o[29]
*596 wbs_dat_o[2]
*597 wbs_dat_o[30]
*598 wbs_dat_o[31]
*599 wbs_dat_o[3]
*600 wbs_dat_o[4]
*601 wbs_dat_o[5]
*602 wbs_dat_o[6]
*603 wbs_dat_o[7]
*604 wbs_dat_o[8]
*605 wbs_dat_o[9]
*606 wbs_sel_i[0]
*607 wbs_sel_i[1]
*608 wbs_sel_i[2]
*609 wbs_sel_i[3]
*610 wbs_stb_i
*611 wbs_we_i
*612 _0000_
*613 _0001_
*614 _0002_
*615 _0003_
*616 _0004_
*617 _0005_
*618 _0006_
*619 _0007_
*620 _0008_
*621 _0009_
*622 _0010_
*623 _0011_
*624 _0012_
*625 _0013_
*626 _0014_
*627 _0015_
*628 _0016_
*629 _0017_
*630 _0018_
*631 _0019_
*632 _0020_
*633 _0021_
*634 _0022_
*635 _0023_
*636 _0024_
*637 _0025_
*638 _0026_
*639 _0027_
*640 _0028_
*641 _0029_
*642 _0030_
*643 _0031_
*644 _0032_
*645 _0033_
*646 _0034_
*647 _0035_
*648 _0036_
*649 _0037_
*650 _0038_
*651 _0039_
*652 _0040_
*653 _0041_
*654 _0042_
*655 _0043_
*656 _0044_
*657 _0045_
*658 _0046_
*659 _0047_
*660 _0048_
*661 _0049_
*662 _0050_
*663 _0051_
*664 _0052_
*665 _0053_
*666 _0054_
*667 _0055_
*668 _0056_
*669 _0057_
*670 _0058_
*671 _0059_
*672 _0060_
*673 _0061_
*674 _0062_
*675 _0063_
*676 _0064_
*677 _0065_
*678 _0066_
*679 _0067_
*680 _0068_
*681 _0069_
*682 _0070_
*683 _0071_
*684 _0072_
*685 _0073_
*686 _0074_
*687 _0075_
*688 _0076_
*689 _0077_
*690 _0078_
*691 _0079_
*692 _0080_
*693 _0081_
*694 _0082_
*695 _0083_
*696 _0084_
*697 _0085_
*698 _0086_
*699 _0087_
*700 _0088_
*701 _0089_
*702 _0090_
*703 _0091_
*704 _0092_
*705 _0093_
*706 _0094_
*707 _0095_
*708 _0096_
*709 _0097_
*710 _0098_
*711 _0099_
*712 _0100_
*713 _0101_
*714 _0102_
*715 _0103_
*716 _0104_
*717 _0105_
*718 _0106_
*719 _0107_
*720 _0108_
*721 _0109_
*722 _0110_
*723 _0111_
*724 _0112_
*725 _0113_
*726 _0114_
*727 _0115_
*728 _0116_
*729 _0117_
*730 _0118_
*731 _0119_
*732 _0120_
*733 _0121_
*734 _0122_
*735 _0123_
*736 _0124_
*737 _0125_
*738 _0126_
*739 _0127_
*740 _0128_
*741 _0129_
*742 _0130_
*743 _0131_
*744 _0132_
*745 _0133_
*746 _0134_
*747 _0135_
*748 _0136_
*749 _0137_
*750 _0138_
*751 _0139_
*752 _0140_
*753 _0141_
*754 _0142_
*755 _0143_
*756 _0144_
*757 _0145_
*758 _0146_
*759 _0147_
*760 _0148_
*761 _0149_
*762 _0150_
*763 _0151_
*764 _0152_
*765 _0153_
*766 _0154_
*767 _0155_
*768 _0156_
*769 _0157_
*770 _0158_
*771 _0159_
*772 _0160_
*773 _0161_
*774 _0162_
*775 _0163_
*776 _0164_
*777 _0165_
*778 _0166_
*779 _0167_
*780 _0168_
*781 _0169_
*782 _0170_
*783 _0171_
*784 _0172_
*785 _0173_
*786 _0174_
*787 _0175_
*788 _0176_
*789 _0177_
*790 _0178_
*791 _0179_
*792 _0180_
*793 _0181_
*794 _0182_
*795 _0183_
*796 _0184_
*797 _0185_
*798 _0186_
*799 _0187_
*800 _0188_
*801 _0189_
*802 _0190_
*803 _0191_
*804 _0192_
*805 _0193_
*806 _0194_
*807 _0195_
*808 _0196_
*809 _0197_
*810 _0198_
*811 _0199_
*812 _0200_
*813 _0201_
*814 _0202_
*815 _0203_
*816 _0204_
*817 _0205_
*818 _0206_
*819 _0207_
*820 _0208_
*821 _0209_
*822 _0210_
*823 _0211_
*824 _0212_
*825 _0213_
*826 _0214_
*827 _0215_
*828 _0216_
*829 _0217_
*830 _0218_
*831 _0219_
*832 _0220_
*833 _0221_
*834 _0222_
*835 _0223_
*836 _0224_
*837 _0225_
*838 _0226_
*839 _0227_
*840 _0228_
*841 _0229_
*842 _0230_
*843 _0231_
*844 _0232_
*845 _0233_
*846 _0234_
*847 _0235_
*848 _0236_
*849 _0237_
*850 _0238_
*851 _0239_
*852 _0240_
*853 _0241_
*854 _0242_
*855 _0243_
*856 _0244_
*857 _0245_
*858 _0246_
*859 _0247_
*860 _0248_
*861 _0249_
*862 _0250_
*863 _0251_
*864 _0252_
*865 _0253_
*866 _0254_
*867 _0255_
*868 _0256_
*869 _0257_
*870 _0258_
*871 _0259_
*872 _0260_
*873 _0261_
*874 _0262_
*875 _0263_
*876 _0264_
*877 _0265_
*878 _0266_
*879 _0267_
*880 _0268_
*881 _0269_
*882 _0270_
*883 _0271_
*884 _0272_
*885 _0273_
*886 _0274_
*887 _0275_
*888 _0276_
*889 _0277_
*890 _0278_
*891 _0279_
*892 _0280_
*893 _0281_
*894 _0282_
*895 _0283_
*896 _0284_
*897 _0285_
*898 _0286_
*899 _0287_
*900 _0288_
*901 _0289_
*902 _0290_
*903 _0291_
*904 _0292_
*905 _0293_
*906 _0294_
*907 _0295_
*908 _0296_
*909 _0297_
*910 _0298_
*911 _0299_
*912 _0300_
*913 _0301_
*914 _0302_
*915 _0303_
*916 _0304_
*917 _0305_
*918 _0306_
*919 _0307_
*920 _0308_
*921 _0309_
*922 _0310_
*923 _0311_
*924 _0312_
*925 _0313_
*926 _0314_
*927 _0315_
*928 _0316_
*929 _0317_
*930 _0318_
*931 _0319_
*932 _0320_
*933 _0321_
*934 _0322_
*935 _0323_
*936 _0324_
*937 _0325_
*938 _0326_
*939 _0327_
*940 _0328_
*941 _0329_
*942 _0330_
*943 _0331_
*944 _0332_
*945 _0333_
*946 _0334_
*947 _0335_
*948 _0336_
*949 _0337_
*950 _0338_
*951 _0339_
*952 _0340_
*953 _0341_
*954 _0342_
*955 _0343_
*956 _0344_
*957 _0345_
*958 _0346_
*959 _0347_
*960 _0348_
*961 _0349_
*962 _0350_
*963 _0351_
*964 _0352_
*965 _0353_
*966 _0354_
*967 _0355_
*968 _0356_
*969 _0357_
*970 _0358_
*971 _0359_
*972 _0360_
*973 _0361_
*974 _0362_
*975 _0363_
*976 _0364_
*977 _0365_
*978 _0366_
*979 _0367_
*980 _0368_
*981 _0369_
*982 _0370_
*983 _0371_
*984 _0372_
*985 _0373_
*986 _0374_
*987 _0375_
*988 _0376_
*989 _0377_
*990 _0378_
*991 _0379_
*992 _0380_
*993 _0381_
*994 _0382_
*995 _0383_
*996 _0384_
*997 _0385_
*998 _0386_
*999 _0387_
*1000 _0388_
*1001 _0389_
*1002 _0390_
*1003 _0391_
*1004 _0392_
*1005 _0393_
*1006 _0394_
*1007 _0395_
*1008 _0396_
*1009 _0397_
*1010 _0398_
*1011 _0399_
*1012 _0400_
*1013 _0401_
*1014 _0402_
*1015 _0403_
*1016 _0404_
*1017 _0405_
*1018 _0406_
*1019 _0407_
*1020 _0408_
*1021 _0409_
*1022 _0410_
*1023 _0411_
*1024 _0412_
*1025 _0413_
*1026 _0414_
*1027 _0415_
*1028 _0416_
*1029 _0417_
*1030 _0418_
*1031 _0419_
*1032 _0420_
*1033 counter.clk
*1034 clknet_0_counter.clk
*1035 clknet_1_0_0_counter.clk
*1036 clknet_1_1_0_counter.clk
*1037 clknet_2_0_0_counter.clk
*1038 clknet_2_1_0_counter.clk
*1039 clknet_2_2_0_counter.clk
*1040 clknet_2_3_0_counter.clk
*1041 clknet_3_0_0_counter.clk
*1042 clknet_3_1_0_counter.clk
*1043 clknet_3_2_0_counter.clk
*1044 clknet_3_3_0_counter.clk
*1045 clknet_3_4_0_counter.clk
*1046 clknet_3_5_0_counter.clk
*1047 clknet_3_6_0_counter.clk
*1048 clknet_3_7_0_counter.clk

*D_NET *0 0
*CONN
*P io_in[0] I
*CAP
*RES
*END

*D_NET *1 0
*CONN
*P io_in[10] I
*CAP
*RES
*END

*D_NET *2 0
*CONN
*P io_in[11] I
*CAP
*RES
*END

*D_NET *3 0
*CONN
*P io_in[12] I
*CAP
*RES
*END

*D_NET *4 0
*CONN
*P io_in[13] I
*CAP
*RES
*END

*D_NET *5 0
*CONN
*P io_in[14] I
*CAP
*RES
*END

*D_NET *6 0
*CONN
*P io_in[15] I
*CAP
*RES
*END

*D_NET *7 0
*CONN
*P io_in[16] I
*CAP
*RES
*END

*D_NET *8 0
*CONN
*P io_in[17] I
*CAP
*RES
*END

*D_NET *9 0
*CONN
*P io_in[18] I
*CAP
*RES
*END

*D_NET *10 0
*CONN
*P io_in[19] I
*CAP
*RES
*END

*D_NET *11 0
*CONN
*P io_in[1] I
*CAP
*RES
*END

*D_NET *12 0
*CONN
*P io_in[20] I
*CAP
*RES
*END

*D_NET *13 0
*CONN
*P io_in[21] I
*CAP
*RES
*END

*D_NET *14 0
*CONN
*P io_in[22] I
*CAP
*RES
*END

*D_NET *15 0
*CONN
*P io_in[23] I
*CAP
*RES
*END

*D_NET *16 0
*CONN
*P io_in[24] I
*CAP
*RES
*END

*D_NET *17 0
*CONN
*P io_in[25] I
*CAP
*RES
*END

*D_NET *18 0
*CONN
*P io_in[26] I
*CAP
*RES
*END

*D_NET *19 0
*CONN
*P io_in[27] I
*CAP
*RES
*END

*D_NET *20 0
*CONN
*P io_in[28] I
*CAP
*RES
*END

*D_NET *21 0
*CONN
*P io_in[29] I
*CAP
*RES
*END

*D_NET *22 0
*CONN
*P io_in[2] I
*CAP
*RES
*END

*D_NET *23 0
*CONN
*P io_in[30] I
*CAP
*RES
*END

*D_NET *24 0
*CONN
*P io_in[31] I
*CAP
*RES
*END

*D_NET *25 0
*CONN
*P io_in[32] I
*CAP
*RES
*END

*D_NET *26 0
*CONN
*P io_in[33] I
*CAP
*RES
*END

*D_NET *27 0
*CONN
*P io_in[34] I
*CAP
*RES
*END

*D_NET *28 0
*CONN
*P io_in[35] I
*CAP
*RES
*END

*D_NET *29 0
*CONN
*P io_in[36] I
*CAP
*RES
*END

*D_NET *30 0
*CONN
*P io_in[37] I
*CAP
*RES
*END

*D_NET *31 0
*CONN
*P io_in[3] I
*CAP
*RES
*END

*D_NET *32 0
*CONN
*P io_in[4] I
*CAP
*RES
*END

*D_NET *33 0
*CONN
*P io_in[5] I
*CAP
*RES
*END

*D_NET *34 0
*CONN
*P io_in[6] I
*CAP
*RES
*END

*D_NET *35 0
*CONN
*P io_in[7] I
*CAP
*RES
*END

*D_NET *36 0
*CONN
*P io_in[8] I
*CAP
*RES
*END

*D_NET *37 0
*CONN
*P io_in[9] I
*CAP
*RES
*END

*D_NET *38 0.0002011063
*CONN
*P io_oeb[0] O
*I _0947_:X O
*CAP
0 *38:1 3.8095200000000007e-06
1 *38:2 3.332e-06
2 *38:4 0.00014606728000000002
3 *38:6 4.78975e-05
4 _0947_:X 0
5 *38:5 0
*RES
0 *38:1 _0947_:X 0.4107142857142857
1 *38:2 *38:3 1.2142857142857142
2 *38:4 *38:5 18.07142857142857
3 *38:6 *38:7 17.455357142857142
4 _0947_:X _0947_:X 0
5 *38:1 *38:3 0
6 *38:5 *38:2 0
7 *38:4 *38:6 0
*END

*D_NET *39 4.421002e-05
*CONN
*P io_oeb[10] O
*I _0957_:X O
*CAP
6 *39:1 3.8095200000000007e-06
7 *39:2 4.04005e-05
8 _0957_:X 0
*RES
8 *39:1 _0957_:X 0.4107142857142857
9 *39:2 *39:3 14.723214285714283
10 _0957_:X _0957_:X 0
11 *39:1 *39:2 0
*END

*D_NET *40 4.04005e-05
*CONN
*P io_oeb[11] O
*I _0958_:X O
*CAP
9 *40:1 4.04005e-05
10 _0958_:X 0
*RES
12 *40:1 *40:2 14.723214285714283
13 _0958_:X _0958_:X 0
14 _0958_:X *40:1 0
*END

*D_NET *41 4.04005e-05
*CONN
*P io_oeb[12] O
*I _0959_:X O
*CAP
11 *41:1 4.04005e-05
12 _0959_:X 0
*RES
15 *41:1 *41:2 14.723214285714283
16 _0959_:X _0959_:X 0
17 _0959_:X *41:1 0
*END

*D_NET *42 4.04005e-05
*CONN
*P io_oeb[13] O
*I _0960_:X O
*CAP
13 *42:1 4.04005e-05
14 _0960_:X 0
*RES
18 *42:1 *42:2 14.723214285714283
19 _0960_:X _0960_:X 0
20 _0960_:X *42:1 0
*END

*D_NET *43 4.421002e-05
*CONN
*P io_oeb[14] O
*I _0961_:X O
*CAP
15 _0961_:X 3.8095200000000007e-06
16 *43:2 4.04005e-05
17 *43:1 0
*RES
21 _0961_:X *43:1 0.4107142857142857
22 *43:2 *43:3 14.723214285714283
23 _0961_:X _0961_:X 0
24 *43:1 *43:2 0
*END

*D_NET *44 4.421002e-05
*CONN
*P io_oeb[15] O
*I _0962_:X O
*CAP
18 _0962_:X 3.8095200000000007e-06
19 *44:2 4.04005e-05
20 *44:1 0
*RES
25 _0962_:X *44:1 0.4107142857142857
26 *44:2 *44:3 14.723214285714283
27 _0962_:X _0962_:X 0
28 *44:1 *44:2 0
*END

*D_NET *45 5.413498e-05
*CONN
*P io_oeb[16] O
*I _0963_:X O
*CAP
21 *45:1 4.04005e-05
22 _0963_:X 1.373448e-05
23 *45:3 0
*RES
29 *45:1 *45:2 14.723214285714283
30 _0963_:X *45:3 1.6428571428571428
31 *45:3 *45:1 0
32 _0963_:X _0963_:X 0
*END

*D_NET *46 4.04005e-05
*CONN
*P io_oeb[17] O
*I _0964_:X O
*CAP
24 *46:1 4.04005e-05
25 _0964_:X 0
*RES
33 *46:1 *46:2 14.723214285714283
34 _0964_:X _0964_:X 0
35 _0964_:X *46:1 0
*END

*D_NET *47 4.751834e-05
*CONN
*P io_oeb[18] O
*I _0965_:X O
*CAP
26 *47:1 7.117840000000001e-06
27 *47:2 4.04005e-05
28 _0965_:X 0
*RES
36 *47:1 _0965_:X 0.8214285714285714
37 *47:2 *47:3 14.723214285714283
38 _0965_:X _0965_:X 0
39 *47:1 *47:2 0
*END

*D_NET *48 4.04005e-05
*CONN
*P io_oeb[19] O
*I _0966_:X O
*CAP
29 *48:1 4.04005e-05
30 _0966_:X 0
*RES
40 *48:1 *48:2 14.723214285714283
41 _0966_:X _0966_:X 0
42 _0966_:X *48:1 0
*END

*D_NET *49 0.0001674841
*CONN
*P io_oeb[1] O
*I _0948_:X O
*CAP
31 *49:1 2.499e-06
32 *49:3 4.020104e-05
33 *49:5 2.37405e-05
34 *49:7 2.4451e-05
35 *49:9 7.659256000000001e-05
36 *49:4 0
37 _0948_:X 0
*RES
43 *49:1 *49:2 0.9107142857142857
44 *49:3 *49:4 4.928571428571428
45 *49:5 *49:6 8.651785714285714
46 *49:7 *49:6 0.4107142857142857
47 *49:7 *49:8 8.499999999999998
48 *49:9 _0948_:X 9.446428571428571
49 *49:9 *49:2 0
50 *49:4 *49:1 0
51 *49:3 *49:5 0
52 _0948_:X _0948_:X 0
*END

*D_NET *50 4.04005e-05
*CONN
*P io_oeb[20] O
*I _0967_:X O
*CAP
38 *50:1 4.04005e-05
39 _0967_:X 0
*RES
53 *50:1 *50:2 14.723214285714283
54 _0967_:X _0967_:X 0
55 _0967_:X *50:1 0
*END

*D_NET *51 4.04005e-05
*CONN
*P io_oeb[21] O
*I _0968_:X O
*CAP
40 *51:1 4.04005e-05
41 _0968_:X 0
*RES
56 *51:1 *51:2 14.723214285714283
57 _0968_:X _0968_:X 0
58 _0968_:X *51:1 0
*END

*D_NET *52 4.04005e-05
*CONN
*P io_oeb[22] O
*I _0969_:X O
*CAP
42 *52:1 4.04005e-05
43 _0969_:X 0
*RES
59 *52:1 *52:2 14.723214285714283
60 _0969_:X _0969_:X 0
61 _0969_:X *52:1 0
*END

*D_NET *53 4.04005e-05
*CONN
*P io_oeb[23] O
*I _0970_:X O
*CAP
44 *53:1 4.04005e-05
45 _0970_:X 0
*RES
62 *53:1 *53:2 14.723214285714283
63 _0970_:X _0970_:X 0
64 _0970_:X *53:1 0
*END

*D_NET *54 4.04005e-05
*CONN
*P io_oeb[24] O
*I _0971_:X O
*CAP
46 *54:1 4.04005e-05
47 _0971_:X 0
*RES
65 *54:1 *54:2 14.723214285714283
66 _0971_:X _0971_:X 0
67 _0971_:X *54:1 0
*END

*D_NET *55 5.0826659999999996e-05
*CONN
*P io_oeb[25] O
*I _0972_:X O
*CAP
48 _0972_:X 1.0426159999999999e-05
49 *55:2 4.04005e-05
50 *55:1 0
*RES
68 _0972_:X *55:1 1.232142857142857
69 *55:2 *55:3 14.723214285714283
70 _0972_:X _0972_:X 0
71 *55:1 *55:2 0
*END

*D_NET *56 4.751834e-05
*CONN
*P io_oeb[26] O
*I _0973_:X O
*CAP
51 _0973_:X 7.117840000000001e-06
52 *56:2 4.04005e-05
53 *56:1 0
*RES
72 _0973_:X *56:1 0.8214285714285714
73 *56:2 *56:3 14.723214285714283
74 _0973_:X _0973_:X 0
75 *56:1 *56:2 0
*END

*D_NET *57 5.413498e-05
*CONN
*P io_oeb[27] O
*I _0974_:X O
*CAP
54 *57:1 1.373448e-05
55 *57:2 4.04005e-05
56 _0974_:X 0
*RES
76 *57:1 _0974_:X 1.6428571428571428
77 *57:2 *57:3 14.723214285714283
78 _0974_:X _0974_:X 0
79 *57:1 *57:2 0
*END

*D_NET *58 5.413498e-05
*CONN
*P io_oeb[28] O
*I _0975_:X O
*CAP
57 _0975_:X 1.373448e-05
58 *58:2 4.04005e-05
59 *58:1 0
*RES
80 _0975_:X *58:1 1.6428571428571428
81 *58:2 *58:3 14.723214285714283
82 _0975_:X _0975_:X 0
83 *58:1 *58:2 0
*END

*D_NET *59 5.0826659999999996e-05
*CONN
*P io_oeb[29] O
*I _0976_:X O
*CAP
60 _0976_:X 1.0426159999999999e-05
61 *59:2 4.04005e-05
62 *59:1 0
*RES
84 _0976_:X *59:1 1.232142857142857
85 *59:2 *59:3 14.723214285714283
86 _0976_:X _0976_:X 0
87 *59:1 *59:2 0
*END

*D_NET *60 0.00013353466
*CONN
*P io_oeb[2] O
*I _0949_:X O
*CAP
63 *60:1 9.313416000000002e-05
64 *60:2 4.04005e-05
65 _0949_:X 0
*RES
88 *60:1 _0949_:X 11.5
89 *60:2 *60:3 14.723214285714283
90 _0949_:X _0949_:X 0
91 *60:1 *60:2 0
*END

*D_NET *61 7.067658e-05
*CONN
*P io_oeb[30] O
*I _0977_:X O
*CAP
66 _0977_:X 3.0276079999999998e-05
67 *61:2 4.04005e-05
68 *61:1 0
*RES
92 _0977_:X *61:1 3.6964285714285707
93 *61:2 *61:3 14.723214285714283
94 _0977_:X _0977_:X 0
95 *61:1 *61:2 0
*END

*D_NET *62 7.067658e-05
*CONN
*P io_oeb[31] O
*I _0978_:X O
*CAP
69 _0978_:X 3.0276079999999998e-05
70 *62:2 4.04005e-05
71 *62:1 0
*RES
96 _0978_:X *62:1 3.6964285714285707
97 *62:2 *62:3 14.723214285714283
98 _0978_:X _0978_:X 0
99 *62:1 *62:2 0
*END

*D_NET *63 9.714314000000001e-05
*CONN
*P io_oeb[32] O
*I _0979_:X O
*CAP
72 *63:1 4.04005e-05
73 _0979_:X 5.6742640000000004e-05
74 *63:3 0
*RES
100 *63:1 *63:2 14.723214285714283
101 _0979_:X *63:3 6.982142857142857
102 *63:3 *63:1 0
103 _0979_:X _0979_:X 0
*END

*D_NET *64 9.383482e-05
*CONN
*P io_oeb[33] O
*I _0980_:X O
*CAP
75 *64:1 4.04005e-05
76 _0980_:X 5.343432e-05
77 *64:3 0
*RES
104 *64:1 *64:2 14.723214285714283
105 _0980_:X *64:3 6.571428571428571
106 _0980_:X _0980_:X 0
107 *64:3 *64:1 0
*END

*D_NET *65 0.00014029066000000002
*CONN
*P io_oeb[34] O
*I _0981_:X O
*CAP
78 _0981_:X 4.681768e-05
79 *65:1 2.94648e-06
80 *65:2 5.0126e-05
81 *65:4 4.04005e-05
82 *65:3 0
*RES
108 _0981_:X *65:1 5.75
109 *65:1 *65:2 0.30357142857142855
110 *65:2 *65:3 6.160714285714286
111 *65:4 *65:5 14.723214285714283
112 _0981_:X _0981_:X 0
113 *65:3 *65:4 0
*END

*D_NET *66 0.00016414254
*CONN
*P io_oeb[35] O
*I _0982_:X O
*CAP
83 _0982_:X 0.00012290904000000001
84 *66:2 4.12335e-05
85 *66:1 0
*RES
114 _0982_:X *66:1 15.19642857142857
115 *66:2 *66:3 15.026785714285712
116 _0982_:X _0982_:X 0
117 *66:1 *66:2 0
*END

*D_NET *67 0.005936394400000003
*CONN
*P io_oeb[36] O
*I _0982_:A I
*I _0981_:A I
*I _0980_:A I
*I _0979_:A I
*I _0978_:A I
*I _0977_:A I
*I _0976_:A I
*I _0975_:A I
*I _0974_:A I
*I _0973_:A I
*I _0972_:A I
*I _0971_:A I
*I _0970_:A I
*I _0969_:A I
*I _0968_:A I
*I _0967_:A I
*I _0966_:A I
*I _0965_:A I
*I _0964_:A I
*I _0963_:A I
*I _0962_:A I
*I _0961_:A I
*I _0960_:A I
*I _0959_:A I
*I _0958_:A I
*I _0957_:A I
*I _0956_:A I
*I _0955_:A I
*I _0954_:A I
*I _0953_:A I
*I _0952_:A I
*I _0951_:A I
*I _0950_:A I
*I _0949_:A I
*I _0948_:A I
*I _0947_:A I
*I _0660_:A I
*I _0645_:A I
*I _0610_:A I
*I _0558_:A I
*I _0425_:X O
*CAP
86 *67:1 4.28995e-05
87 _0948_:A 8.651752000000002e-05
88 _0947_:A 7.990088e-05
89 _0981_:A 8.651752000000002e-05
90 _0980_:A 6.66676e-05
91 _0982_:A 0.00024200856
92 _0951_:A 0.00010305912000000001
93 _0950_:A 9.313416000000002e-05
94 _0949_:A 9.313416000000002e-05
95 _0610_:A 2.94648e-06
96 *67:4 8.320920000000001e-05
97 *67:5 5.39176e-06
98 *67:6 0.00014275896
99 *67:8 0.00011175920000000001
100 *67:9 4.165e-06
101 *67:11 2.035112e-05
102 _0425_:X 1.0426159999999999e-05
103 *67:13 4.831399999999999e-05
104 _0958_:A 0.00010967576000000001
105 _0957_:A 0.00010967576000000001
106 _0964_:A 0.00011960072
107 _0965_:A 0.00010636744000000001
108 _0970_:A 0.00011298408
109 _0971_:A 0.00010305912000000001
110 _0976_:A 8.982584e-05
111 _0977_:A 0.00011298408
112 _0978_:A 8.651752000000002e-05
113 _0979_:A 0.00011629240000000002
114 *67:15 0.00015599224000000002
115 _0956_:A 0.00010967576000000001
116 *67:17 6.664e-06
117 _0962_:A 9.975080000000001e-05
118 _0961_:A 0.00011298408
119 _0960_:A 0.00010967576000000001
120 _0959_:A 0.00011298408
121 _0963_:A 0.00012621736
122 _0967_:A 0.00011298408
123 _0968_:A 0.00011298408
124 _0966_:A 0.00010967576000000001
125 _0969_:A 0.00010967576000000001
126 _0973_:A 0.00012952568
127 _0974_:A 8.651752000000002e-05
128 _0972_:A 0.00011629240000000002
129 _0975_:A 0.00011629240000000002
130 *67:20 1.666e-06
131 *67:22 8.651752000000002e-05
132 *67:24 2.499e-05
133 *67:26 6.756000000000001e-06
134 *67:25 0.00021074899999999998
135 *67:30 7.117840000000001e-06
136 *67:32 0.00011745299999999999
137 *67:34 7.117840000000001e-06
138 *67:36 0.000321538
139 *67:38 7.117840000000001e-06
140 *67:40 0.00011745299999999999
141 *67:42 7.117840000000001e-06
142 *67:44 0.00011995199999999999
143 *67:46 7.117840000000001e-06
144 *67:48 0.00011745299999999999
145 *67:50 7.117840000000001e-06
146 *67:52 0.000119119
147 _0953_:A 0.00010636744000000001
148 _0954_:A 0.00010305912000000001
149 *67:54 3.2166e-05
150 *67:56 2.0825e-06
151 *67:58 2.0825e-06
152 *67:60 1.127e-06
153 _0952_:A 9.644248e-05
154 *67:61 0.00011870250000000001
155 *67:62 6.997592000000002e-05
156 *67:3 0
157 *67:16 0
158 *67:12 0
159 *67:63 0
160 _0645_:A 0
161 *67:19 0
162 _0558_:A 0
163 _0660_:A 0
164 *67:23 0
165 *67:27 0
166 *67:28 0
167 *67:31 0
168 *67:35 0
169 *67:39 0
170 *67:43 0
171 *67:47 0
172 *67:51 0
173 _0955_:A 0
*RES
118 *67:1 *67:2 15.633928571428571
119 _0948_:A _0949_:A 10.678571428571429
120 _0947_:A _0948_:A 9.857142857142856
121 _0981_:A _0982_:A 10.678571428571429
122 _0980_:A _0981_:A 8.214285714285714
123 _0982_:A *67:3 29.982142857142854
124 _0951_:A _0952_:A 12.732142857142856
125 _0950_:A _0951_:A 11.5
126 _0949_:A _0950_:A 11.5
127 _0610_:A *67:4 0.30357142857142855
128 *67:4 *67:5 10.267857142857142
129 *67:5 *67:6 0.6071428571428571
130 *67:6 *67:7 17.660714285714285
131 *67:8 *67:7 0.6071428571428571
132 *67:9 *67:10 1.5178571428571426
133 *67:11 *67:4 2.464285714285714
134 _0425_:X *67:12 1.232142857142857
135 *67:13 *67:14 17.607142857142854
136 _0958_:A _0959_:A 13.553571428571427
137 _0957_:A _0958_:A 13.553571428571427
138 _0964_:A _0965_:A 14.785714285714283
139 _0965_:A _0966_:A 13.142857142857142
140 _0970_:A _0971_:A 13.964285714285714
141 _0971_:A _0972_:A 12.732142857142856
142 _0976_:A _0977_:A 11.089285714285714
143 _0977_:A _0978_:A 13.964285714285714
144 _0978_:A _0979_:A 10.678571428571429
145 _0979_:A _0980_:A 14.375